<?xml version="1.0" encoding="UTF-8"?>

<!-- generated on 2025-06-07 23:47:07 by Eclipse SUMO netedit Version 1.22.0
-->

<routes xmlns:xsi="http://www.w3.org/2001/XMLSchema-instance"
    xsi:noNamespaceSchemaLocation="http://sumo.dlr.de/xsd/routes_file.xsd">
    <!-- Vehicles, persons and containers (sorted by depart) -->


    <!-- vehicle mass = 1682kg curb wt + average 2 passengers / bags -->
    <vType id="soulEV65" minGap="2.50" maxSpeed="29.06" color="white" accel="1.0" decel="1.0"
        sigma="0.0" emissionClass="Energy/unknown" mass="1830">
        <param key="has.battery.device" value="true" />
        <param key="airDragCoefficient" value="0.35" />       <!--
        https://www.evspecifications.com/en/model/e94fa0 -->
        <param key="constantPowerIntake" value="100" />       <!-- observed summer levels -->
        <param key="frontSurfaceArea" value="2.6" />          <!-- computed (ht-clearance) * width -->
        <param key="rotatingMass" value="40" />               <!-- guesstimate, inspired by PHEMlight5 PC_BEV -->
        <param key="device.battery.capacity" value="64000" />
        <param key="maximumPower" value="150000" />           <!-- website as above -->
        <param key="propulsionEfficiency" value=".98" />      <!-- guesstimate value providing closest
        match to observed -->
        <param key="radialDragCoefficient" value="0.1" />     <!-- as above -->
        <param key="recuperationEfficiency" value=".96" />    <!-- as above -->
        <param key="rollDragCoefficient" value="0.01" />      <!-- as above -->
        <param key="stoppingThreshold" value="0.1" />         <!-- as above -->
    </vType>

    <flow id="f_0" type="soulEV65" begin="0.00" line="1" fromJunction="J0" toJunction="J1"
        end="3600.00" vehsPerHour="200" />
</routes>