<?xml version="1.0" encoding="UTF-8"?>

<!-- generated on 2025-06-08 01:11:51 by Eclipse SUMO netedit Version 1.22.0
<neteditConfiguration xmlns:xsi="http://www.w3.org/2001/XMLSchema-instance" xsi:noNamespaceSchemaLocation="http://sumo.dlr.de/xsd/neteditConfiguration.xsd">

    <input>
        <sumocfg-file value="C:\Users\azar\Desktop\sumo\charging_station\charging_station_sumoconfig.sumocfg"/>
        <additional-files value="C:\Users\azar\Desktop\sumo\charging_station\charging_station_net.add.xml"/>
        <route-files value="C:\Users\azar\Desktop\sumo\charging_station\charging_station_net.rou.xml"/>
        <sumo-net-file value="C:\Users\azar\Desktop\sumo\charging_station\charging_station_net.net.xml"/>
    </input>

    <output>
        <output-file value="C:\Users\azar\Desktop\sumo\charging_station\charging_station_net.net.xml"/>
    </output>

    <processing>
        <geometry.min-radius.fix.railways value="false"/>
        <geometry.max-grade.fix value="false"/>
        <offset.disable-normalization value="true"/>
        <lefthand value="0"/>
    </processing>

    <junctions>
        <no-turnarounds value="true"/>
        <junctions.corner-detail value="5"/>
        <junctions.limit-turn-speed value="5.50"/>
        <rectangular-lane-cut value="0"/>
    </junctions>

    <pedestrian>
        <walkingareas value="0"/>
    </pedestrian>

    <netedit>
        <new-network value="false"/>
    </netedit>

</neteditConfiguration>
-->

<net version="1.20" junctionCornerDetail="5" limitTurnSpeed="5.50" xmlns:xsi="http://www.w3.org/2001/XMLSchema-instance" xsi:noNamespaceSchemaLocation="http://sumo.dlr.de/xsd/net_file.xsd">

    <location netOffset="0.00,0.00" convBoundary="-68.64,-16.51,99.01,5.44" origBoundary="-10000000000.00,-10000000000.00,10000000000.00,10000000000.00" projParameter="!"/>

    <edge id=":J1_0" function="internal">
        <lane id=":J1_0_0" index="0" speed="6.51" length="9.03" shape="-2.96,3.83 -0.51,3.48 1.24,2.43 2.29,0.68 2.64,-1.77"/>
    </edge>
    <edge id=":J1_1" function="internal">
        <lane id=":J1_1_0" index="0" speed="13.89" length="11.20" shape="-2.96,3.83 8.24,3.83"/>
        <lane id=":J1_1_1" index="1" speed="13.89" length="11.20" shape="-2.96,7.03 8.24,7.03"/>
    </edge>
    <edge id=":J2_0" function="internal">
        <lane id=":J2_0_0" index="0" speed="3.90" length="2.58" shape="2.64,-14.91 2.74,-15.61 3.04,-16.11 3.54,-16.41 4.24,-16.51"/>
    </edge>
    <edge id=":J3_0" function="internal">
        <lane id=":J3_0_0" index="0" speed="3.90" length="2.57" shape="50.40,-16.51 51.10,-16.41 51.60,-16.11 51.90,-15.61 52.00,-14.92"/>
    </edge>
    <edge id=":J4_0" function="internal">
        <lane id=":J4_0_0" index="0" speed="6.51" length="9.00" shape="52.10,-1.75 52.47,0.69 53.52,2.43 55.27,3.48 57.70,3.83"/>
    </edge>
    <edge id=":J4_1" function="internal">
        <lane id=":J4_1_0" index="0" speed="13.89" length="11.14" shape="46.56,3.83 57.70,3.83"/>
        <lane id=":J4_1_1" index="1" speed="13.89" length="11.14" shape="46.56,7.03 57.70,7.03"/>
    </edge>

    <edge id="E0" from="J0" to="J1" priority="-1" spreadType="center">
        <lane id="E0_0" index="0" speed="13.89" length="65.68" shape="-68.64,3.83 -2.96,3.83"/>
        <lane id="E0_1" index="1" speed="13.89" length="65.68" shape="-68.64,7.03 -2.96,7.03"/>
    </edge>
    <edge id="E1" from="J1" to="J2" priority="-1" spreadType="center">
        <lane id="E1_0" index="0" speed="13.89" length="13.13" shape="2.64,-1.77 2.64,-14.91"/>
    </edge>
    <edge id="E2" from="J2" to="J3" priority="-1" spreadType="center">
        <lane id="E2_0" index="0" speed="13.89" length="46.16" shape="4.24,-16.51 50.40,-16.51"/>
    </edge>
    <edge id="E3" from="J1" to="J4" priority="-1" type="." spreadType="center">
        <lane id="E3_0" index="0" speed="13.89" length="38.32" shape="8.24,3.83 46.56,3.83"/>
        <lane id="E3_1" index="1" speed="13.89" length="38.32" shape="8.24,7.03 46.56,7.03"/>
    </edge>
    <edge id="E4" from="J3" to="J4" priority="-1" spreadType="center">
        <lane id="E4_0" index="0" speed="13.89" length="13.17" shape="52.00,-14.92 52.10,-1.75"/>
    </edge>
    <edge id="E5" from="J4" to="J5" priority="-1" spreadType="center">
        <lane id="E5_0" index="0" speed="13.89" length="41.31" shape="57.70,3.83 99.01,3.84"/>
        <lane id="E5_1" index="1" speed="13.89" length="41.31" shape="57.70,7.03 99.01,7.04"/>
    </edge>

    <junction id="J0" type="dead_end" x="-68.64" y="5.43" incLanes="" intLanes="" shape="-68.64,8.63 -68.64,2.23"/>
    <junction id="J1" type="priority" x="2.64" y="5.43" incLanes="E0_0 E0_1" intLanes=":J1_0_0 :J1_1_0 :J1_1_1" shape="8.24,8.63 8.24,2.23 6.02,1.78 5.24,1.23 4.69,0.45 4.35,-0.55 4.24,-1.77 1.04,-1.77 0.60,0.45 0.04,1.23 -0.74,1.78 -1.74,2.12 -2.96,2.23 -2.96,8.63">
        <request index="0" response="000" foes="000" cont="0"/>
        <request index="1" response="000" foes="000" cont="0"/>
        <request index="2" response="000" foes="000" cont="0"/>
    </junction>
    <junction id="J2" type="priority" x="2.64" y="-16.51" incLanes="E1_0" intLanes=":J2_0_0" shape="1.04,-14.91 4.24,-14.91 4.24,-18.11 2.46,-17.75 1.84,-17.31 1.40,-16.68 1.13,-15.88">
        <request index="0" response="0" foes="0" cont="0"/>
    </junction>
    <junction id="J3" type="priority" x="51.99" y="-16.51" incLanes="E2_0" intLanes=":J3_0_0" shape="50.40,-14.91 53.60,-14.93 53.24,-16.70 52.79,-17.31 52.17,-17.75 51.37,-18.02 50.40,-18.11">
        <request index="0" response="0" foes="0" cont="0"/>
    </junction>
    <junction id="J4" type="priority" x="52.16" y="5.43" incLanes="E4_0 E3_0 E3_1" intLanes=":J4_0_0 :J4_1_0 :J4_1_1" shape="57.70,8.63 57.70,2.23 55.49,1.78 54.72,1.23 54.16,0.45 53.82,-0.55 53.70,-1.77 50.50,-1.74 50.08,0.46 49.53,1.23 48.76,1.79 47.78,2.12 46.56,2.23 46.56,8.63">
        <request index="0" response="110" foes="110" cont="0"/>
        <request index="1" response="000" foes="001" cont="0"/>
        <request index="2" response="000" foes="001" cont="0"/>
    </junction>
    <junction id="J5" type="dead_end" x="99.01" y="5.44" incLanes="E5_0 E5_1" intLanes="" shape="99.01,2.24 99.01,8.64"/>

    <connection from="E0" to="E1" fromLane="0" toLane="0" via=":J1_0_0" dir="r" state="M"/>
    <connection from="E0" to="E3" fromLane="0" toLane="0" via=":J1_1_0" dir="s" state="M"/>
    <connection from="E0" to="E3" fromLane="1" toLane="1" via=":J1_1_1" dir="s" state="M"/>
    <connection from="E1" to="E2" fromLane="0" toLane="0" via=":J2_0_0" dir="l" state="M"/>
    <connection from="E2" to="E4" fromLane="0" toLane="0" via=":J3_0_0" dir="l" state="M"/>
    <connection from="E3" to="E5" fromLane="0" toLane="0" via=":J4_1_0" dir="s" state="M"/>
    <connection from="E3" to="E5" fromLane="1" toLane="1" via=":J4_1_1" dir="s" state="M"/>
    <connection from="E4" to="E5" fromLane="0" toLane="0" via=":J4_0_0" dir="r" state="m"/>

    <connection from=":J1_0" to="E1" fromLane="0" toLane="0" dir="r" state="M"/>
    <connection from=":J1_1" to="E3" fromLane="0" toLane="0" dir="s" state="M"/>
    <connection from=":J1_1" to="E3" fromLane="1" toLane="1" dir="s" state="M"/>
    <connection from=":J2_0" to="E2" fromLane="0" toLane="0" dir="l" state="M"/>
    <connection from=":J3_0" to="E4" fromLane="0" toLane="0" dir="l" state="M"/>
    <connection from=":J4_0" to="E5" fromLane="0" toLane="0" dir="r" state="M"/>
    <connection from=":J4_1" to="E5" fromLane="0" toLane="0" dir="s" state="M"/>
    <connection from=":J4_1" to="E5" fromLane="1" toLane="1" dir="s" state="M"/>

</net>
