<?xml version="1.0" encoding="UTF-8"?>

<!-- generated on 2025-06-08 01:50:28 by Eclipse SUMO netedit Version 1.22.0
-->

<additional xmlns:xsi="http://www.w3.org/2001/XMLSchema-instance"
    xsi:noNamespaceSchemaLocation="http://sumo.dlr.de/xsd/additional_file.xsd">
    <!-- StoppingPlaces -->
    <parkingArea id="pa_0" lane="E2_0" startPos="7.75" endPos="17.75" />
    <chargingStation id="cs_0" lane="E2_0" chargeDelay="2" chargeInTransit="0" power="200000"
        parkingArea="pa_0" startPos="7.75" endPos="17.75" />
    <chargingStation id="cs_1" lane="E2_0" startPos="30.41" endPos="40.41" />
</additional>