<?xml version="1.0" encoding="UTF-8"?>

<!-- generated on 2025-06-08 01:15:08 by Eclipse SUMO netedit Version 1.22.0
-->

<routes xmlns:xsi="http://www.w3.org/2001/XMLSchema-instance"
    xsi:noNamespaceSchemaLocation="http://sumo.dlr.de/xsd/routes_file.xsd">
    <!-- VTypes -->
    <vType id="soulEV65" minGap="2.50" maxSpeed="29.06" emissionClass="Energy/default"
        mass="1830.00" color="white" accel="1.0" decel="1.0" sigma="0.0">
        <param key="airDragCoefficient" value="0.35" />
        <param key="constantPowerIntake" value="100" />
        <param key="device.battery.capacity" value="64000" />
        <param key="frontSurfaceArea" value="2.6" />
        <param key="has.battery.device" value="true" />
        <param key="maximumPower" value="150000" />
        <param key="propulsionEfficiency" value=".98" />
        <param key="radialDragCoefficient" value="0.1" />
        <param key="recuperationEfficiency" value=".96" />
        <param key="rollDragCoefficient" value="0.01" />
        <param key="rotatingMass" value="40" />
        <param key="stoppingThreshold" value="0.1" />
    </vType>
    <!-- Vehicles, persons and containers (sorted by depart) -->

    <flow id="f_1" type="soulEV65" begin="0.00" fromJunction="J0" toJunction="J5" end="3600.00"
        vehsPerHour="200" />
</routes>