<?xml version="1.0" encoding="UTF-8"?>

<!-- generated on 2025-06-08 23:34:13 by Eclipse SUMO netedit Version 1.22.0
-->

<additional xmlns:xsi="http://www.w3.org/2001/XMLSchema-instance" xsi:noNamespaceSchemaLocation="http://sumo.dlr.de/xsd/additional_file.xsd">
    <!-- StoppingPlaces -->
    <chargingStation id="cs_0" lane="E2_0" startPos="21.20" endPos="31.20"/>
    <chargingStation id="cs_1" lane="E7_1" startPos="24.02" endPos="34.02"/>
</additional>
