<?xml version="1.0" encoding="UTF-8"?>

<!-- generated on 2025-06-09 01:34:52 by Eclipse SUMO netedit Version 1.22.0
-->

<additional xmlns:xsi="http://www.w3.org/2001/XMLSchema-instance"
    xsi:noNamespaceSchemaLocation="http://sumo.dlr.de/xsd/additional_file.xsd">
    <!-- StoppingPlaces -->
    <chargingStation id="cs_0" lane="E7_1" startPos="55.02" endPos="65.02" power="200000" />
</additional>