<?xml version="1.0" encoding="UTF-8"?>

<!-- generated on 2025-06-09 01:35:21 by Eclipse SUMO netedit Version 1.22.0
<neteditConfiguration xmlns:xsi="http://www.w3.org/2001/XMLSchema-instance" xsi:noNamespaceSchemaLocation="http://sumo.dlr.de/xsd/neteditConfiguration.xsd">

    <input>
        <sumocfg-file value="C:\Users\azar\Desktop\sumo\charging_station\charging_station_sumoconfig.sumocfg"/>
        <additional-files value="C:\Users\azar\Desktop\sumo\charging_station\charging_station_sumoconfig.add.xml"/>
        <route-files value="C:\Users\azar\Desktop\sumo\charging_station\charging_station_sumoconfig.rou.xml"/>
        <sumo-net-file value="C:\Users\azar\Desktop\sumo\charging_station\charging_station_net.net.xml"/>
    </input>

    <output>
        <output-file value="C:\Users\azar\Desktop\sumo\charging_station\charging_station_net.net.xml"/>
    </output>

    <processing>
        <geometry.min-radius.fix.railways value="false"/>
        <geometry.max-grade.fix value="false"/>
        <offset.disable-normalization value="true"/>
        <lefthand value="0"/>
    </processing>

    <junctions>
        <no-turnarounds value="true"/>
        <junctions.corner-detail value="5"/>
        <junctions.limit-turn-speed value="5.50"/>
        <rectangular-lane-cut value="0"/>
    </junctions>

    <pedestrian>
        <walkingareas value="0"/>
    </pedestrian>

</neteditConfiguration>
-->

<net version="1.20" junctionCornerDetail="5" limitTurnSpeed="5.50" xmlns:xsi="http://www.w3.org/2001/XMLSchema-instance" xsi:noNamespaceSchemaLocation="http://sumo.dlr.de/xsd/net_file.xsd">

    <location netOffset="0.00,0.00" convBoundary="-137.40,-151.45,357.31,-117.27" origBoundary="-10000000000.00,-10000000000.00,10000000000.00,10000000000.00" projParameter="!"/>

    <edge id=":J11_0" function="internal">
        <lane id=":J11_0_0" index="0" speed="3.90" length="2.58" shape="64.21,-120.47 64.31,-119.77 64.61,-119.27 65.11,-118.97 65.81,-118.87"/>
        <lane id=":J11_0_1" index="1" speed="6.08" length="7.74" shape="61.01,-120.47 61.31,-118.37 62.21,-116.87 63.71,-115.97 65.81,-115.67"/>
    </edge>
    <edge id=":J12_0" function="internal">
        <lane id=":J12_0_0" index="0" speed="3.90" length="2.58" shape="201.25,-118.87 201.95,-118.97 202.45,-119.27 202.75,-119.77 202.85,-120.47"/>
        <lane id=":J12_0_1" index="1" speed="6.08" length="7.74" shape="201.25,-115.67 203.35,-115.97 204.85,-116.87 205.75,-118.37 206.05,-120.47"/>
    </edge>
    <edge id=":J8_0" function="internal">
        <lane id=":J8_0_0" index="0" speed="13.89" length="14.40" shape="55.41,-153.05 69.81,-153.05"/>
        <lane id=":J8_0_1" index="1" speed="13.89" length="14.40" shape="55.41,-149.85 69.81,-149.85"/>
    </edge>
    <edge id=":J8_2" function="internal">
        <lane id=":J8_2_0" index="0" speed="7.33" length="11.73" shape="55.41,-149.85 59.26,-149.50 62.01,-148.45 63.66,-146.70 64.21,-144.25"/>
        <lane id=":J8_2_1" index="1" speed="6.51" length="9.03" shape="55.41,-149.85 57.86,-149.50 59.61,-148.45 60.66,-146.70 61.01,-144.25"/>
    </edge>
    <edge id=":J9_0" function="internal">
        <lane id=":J9_0_0" index="0" speed="13.89" length="14.40" shape="197.25,-153.05 211.65,-153.05"/>
        <lane id=":J9_0_1" index="1" speed="13.89" length="14.40" shape="197.25,-149.85 211.65,-149.85"/>
    </edge>
    <edge id=":J9_2" function="internal">
        <lane id=":J9_2_0" index="0" speed="8.00" length="3.89" shape="202.85,-144.26 203.40,-148.11"/>
        <lane id=":J9_2_1" index="1" speed="6.51" length="4.11" shape="206.05,-144.25 206.40,-146.70 207.24,-148.10"/>
    </edge>
    <edge id=":J9_4" function="internal">
        <lane id=":J9_4_0" index="0" speed="8.00" length="10.30" shape="203.40,-148.11 205.05,-150.85 207.80,-152.50 211.65,-153.05"/>
        <lane id=":J9_4_1" index="0" speed="6.51" length="4.93" shape="207.24,-148.10 207.45,-148.45 209.20,-149.50 211.65,-149.85"/>
    </edge>

    <edge id="E3" from="J7" to="J8" priority="-1" spreadType="center">
        <lane id="E3_0" index="0" speed="13.89" length="192.81" shape="-137.40,-153.05 55.41,-153.05"/>
        <lane id="E3_1" index="1" speed="13.89" length="192.81" shape="-137.40,-149.85 55.41,-149.85"/>
    </edge>
    <edge id="E4" from="J8" to="J9" priority="-1" spreadType="center">
        <lane id="E4_0" index="0" speed="13.89" length="127.44" shape="69.81,-153.05 197.25,-153.05"/>
        <lane id="E4_1" index="1" speed="13.89" length="127.44" shape="69.81,-149.85 197.25,-149.85"/>
    </edge>
    <edge id="E5" from="J9" to="J10" priority="-1" spreadType="center">
        <lane id="E5_0" index="0" speed="13.89" length="145.66" shape="211.65,-153.05 357.31,-153.05"/>
        <lane id="E5_1" index="1" speed="13.89" length="145.66" shape="211.65,-149.85 357.31,-149.85"/>
    </edge>
    <edge id="E6" from="J8" to="J11" priority="-1" spreadType="roadCenter">
        <lane id="E6_0" index="0" speed="13.89" length="23.79" shape="64.21,-144.25 64.21,-120.47"/>
        <lane id="E6_1" index="1" speed="13.89" length="23.79" shape="61.01,-144.25 61.01,-120.47"/>
    </edge>
    <edge id="E7" from="J11" to="J12" priority="-1" spreadType="center">
        <lane id="E7_0" index="0" speed="13.89" length="135.44" shape="65.81,-118.87 201.25,-118.87"/>
        <lane id="E7_1" index="1" speed="13.89" length="135.44" shape="65.81,-115.67 201.25,-115.67"/>
    </edge>
    <edge id="E8" from="J12" to="J9" priority="-1" spreadType="center">
        <lane id="E8_0" index="0" speed="13.89" length="23.79" shape="202.85,-120.47 202.85,-144.26"/>
        <lane id="E8_1" index="1" speed="13.89" length="23.79" shape="206.05,-120.47 206.05,-144.25"/>
    </edge>

    <junction id="J10" type="dead_end" x="357.31" y="-151.45" incLanes="E5_0 E5_1" intLanes="" shape="357.31,-154.65 357.31,-148.25"/>
    <junction id="J11" type="priority" x="59.41" y="-117.27" incLanes="E6_0 E6_1" intLanes=":J11_0_0 :J11_0_1" shape="65.81,-114.07 65.81,-120.47 59.41,-120.47 60.12,-116.91 61.01,-115.67 62.25,-114.78 63.85,-114.25">
        <request index="0" response="00" foes="00" cont="0"/>
        <request index="1" response="00" foes="00" cont="0"/>
    </junction>
    <junction id="J12" type="priority" x="204.45" y="-117.27" incLanes="E7_0 E7_1" intLanes=":J12_0_0 :J12_0_1" shape="207.65,-120.47 201.25,-120.47 201.25,-114.07 204.81,-114.78 206.05,-115.67 206.94,-116.91 207.47,-118.51">
        <request index="0" response="00" foes="00" cont="0"/>
        <request index="1" response="00" foes="00" cont="0"/>
    </junction>
    <junction id="J7" type="dead_end" x="-137.40" y="-151.45" incLanes="" intLanes="" shape="-137.40,-148.25 -137.40,-154.65"/>
    <junction id="J8" type="priority" x="59.41" y="-151.45" incLanes="E3_0 E3_1" intLanes=":J8_0_0 :J8_0_1 :J8_2_0 :J8_2_1" shape="59.41,-144.25 65.81,-144.25 66.25,-146.48 66.81,-147.25 67.59,-147.81 68.59,-148.14 69.81,-148.25 69.81,-154.65 55.41,-154.65 55.41,-148.25 57.63,-147.81 58.41,-147.25 58.96,-146.48 59.30,-145.48">
        <request index="0" response="0000" foes="0000" cont="0"/>
        <request index="1" response="0000" foes="0000" cont="0"/>
        <request index="2" response="0000" foes="0000" cont="0"/>
        <request index="3" response="0000" foes="0000" cont="0"/>
    </junction>
    <junction id="J9" type="priority" x="204.45" y="-151.45" incLanes="E4_0 E4_1 E8_0 E8_1" intLanes=":J9_0_0 :J9_0_1 :J9_4_0 :J9_4_1" shape="211.65,-148.25 211.65,-154.65 197.25,-154.65 197.25,-148.25 199.47,-147.81 200.25,-147.25 200.81,-146.48 201.14,-145.48 201.25,-144.26 207.65,-144.25 208.10,-146.48 208.65,-147.25 209.43,-147.81 210.43,-148.14">
        <request index="0" response="0000" foes="1100" cont="0"/>
        <request index="1" response="0000" foes="1100" cont="0"/>
        <request index="2" response="0011" foes="0011" cont="1"/>
        <request index="3" response="0011" foes="0011" cont="1"/>
    </junction>

    <junction id=":J9_4_0" type="internal" x="203.40" y="-148.11" incLanes=":J9_2_0 E4_0 E4_1" intLanes=":J9_0_0 :J9_0_1"/>
    <junction id=":J9_4_1" type="internal" x="207.24" y="-148.10" incLanes=":J9_2_1 E4_0 E4_1" intLanes=":J9_0_0 :J9_0_1"/>

    <connection from="E3" to="E4" fromLane="0" toLane="0" via=":J8_0_0" dir="s" state="M"/>
    <connection from="E3" to="E4" fromLane="1" toLane="1" via=":J8_0_1" dir="s" state="M"/>
    <connection from="E3" to="E6" fromLane="1" toLane="0" via=":J8_2_0" dir="l" state="M"/>
    <connection from="E3" to="E6" fromLane="1" toLane="1" via=":J8_2_1" dir="l" state="M"/>
    <connection from="E4" to="E5" fromLane="0" toLane="0" via=":J9_0_0" dir="s" state="M"/>
    <connection from="E4" to="E5" fromLane="1" toLane="1" via=":J9_0_1" dir="s" state="M"/>
    <connection from="E6" to="E7" fromLane="0" toLane="0" via=":J11_0_0" dir="r" state="M"/>
    <connection from="E6" to="E7" fromLane="1" toLane="1" via=":J11_0_1" dir="r" state="M"/>
    <connection from="E7" to="E8" fromLane="0" toLane="0" via=":J12_0_0" dir="r" state="M"/>
    <connection from="E7" to="E8" fromLane="1" toLane="1" via=":J12_0_1" dir="r" state="M"/>
    <connection from="E8" to="E5" fromLane="0" toLane="0" via=":J9_2_0" dir="l" state="m"/>
    <connection from="E8" to="E5" fromLane="1" toLane="1" via=":J9_2_1" dir="l" state="m"/>

    <connection from=":J11_0" to="E7" fromLane="0" toLane="0" dir="r" state="M"/>
    <connection from=":J11_0" to="E7" fromLane="1" toLane="1" dir="r" state="M"/>
    <connection from=":J12_0" to="E8" fromLane="0" toLane="0" dir="r" state="M"/>
    <connection from=":J12_0" to="E8" fromLane="1" toLane="1" dir="r" state="M"/>
    <connection from=":J8_0" to="E4" fromLane="0" toLane="0" dir="s" state="M"/>
    <connection from=":J8_0" to="E4" fromLane="1" toLane="1" dir="s" state="M"/>
    <connection from=":J8_2" to="E6" fromLane="0" toLane="0" dir="l" state="M"/>
    <connection from=":J8_2" to="E6" fromLane="1" toLane="1" dir="l" state="M"/>
    <connection from=":J9_0" to="E5" fromLane="0" toLane="0" dir="s" state="M"/>
    <connection from=":J9_0" to="E5" fromLane="1" toLane="1" dir="s" state="M"/>
    <connection from=":J9_2" to="E5" fromLane="0" toLane="0" via=":J9_4_0" dir="l" state="m"/>
    <connection from=":J9_4" to="E5" fromLane="0" toLane="0" dir="l" state="M"/>
    <connection from=":J9_2" to="E5" fromLane="1" toLane="1" via=":J9_4_1" dir="l" state="m"/>
    <connection from=":J9_4" to="E5" fromLane="1" toLane="1" dir="l" state="M"/>

</net>
