<?xml version="1.0" encoding="UTF-8"?>

<!-- generated on 2025-06-07 23:37:17 by Eclipse SUMO netedit Version 1.22.0
-->

<additional xmlns:xsi="http://www.w3.org/2001/XMLSchema-instance" xsi:noNamespaceSchemaLocation="http://sumo.dlr.de/xsd/additional_file.xsd">
    <!-- StoppingPlaces -->
    <chargingStation id="cs_1" lane="E4_0" startPos="20.70" endPos="30.70"/>
    <chargingStation id="cs_2" lane="E4_0" startPos="5.77" endPos="15.77"/>
</additional>
